data/ENWL/enwl_kron_reduced/network_19/Feeder_3/Loads.txt
! Imported from Loads.txt, with modified neutral terminal
! --------------------------------------------------------------------------
New Load.LOAD1 Phases=1 Bus1=42.3 kV=0.23 kW=1.968  PF=0.95
New Load.LOAD2 Phases=1 Bus1=211.3 kV=0.23 kW=0.306  PF=0.95
New Load.LOAD3 Phases=1 Bus1=212.3 kV=0.23 kW=2.94  PF=0.95
New Load.LOAD4 Phases=1 Bus1=213.3 kV=0.23 kW=0.324  PF=0.95
New Load.LOAD5 Phases=1 Bus1=279.1 kV=0.23 kW=1.332  PF=0.95
New Load.LOAD6 Phases=1 Bus1=413.2 kV=0.23 kW=3.0540000000000003  PF=0.95
New Load.LOAD7 Phases=1 Bus1=429.2 kV=0.23 kW=2.0580000000000003  PF=0.95
New Load.LOAD8 Phases=1 Bus1=449.1 kV=0.23 kW=0.29400000000000004  PF=0.95
New Load.LOAD9 Phases=1 Bus1=492.2 kV=0.23 kW=0.312  PF=0.95
New Load.LOAD10 Phases=1 Bus1=500.1 kV=0.23 kW=0.27  PF=0.95
New Load.LOAD11 Phases=1 Bus1=504.2 kV=0.23 kW=0.33  PF=0.95
New Load.LOAD12 Phases=1 Bus1=526.2 kV=0.23 kW=0.33  PF=0.95
New Load.LOAD13 Phases=1 Bus1=527.3 kV=0.23 kW=0.246  PF=0.95
New Load.LOAD14 Phases=1 Bus1=542.2 kV=0.23 kW=2.04  PF=0.95
New Load.LOAD15 Phases=1 Bus1=549.2 kV=0.23 kW=0.8280000000000001  PF=0.95
New Load.LOAD16 Phases=1 Bus1=655.1 kV=0.23 kW=0.11399999999999999  PF=0.95
New Load.LOAD17 Phases=1 Bus1=783.1 kV=0.23 kW=0.28800000000000003  PF=0.95
New Load.LOAD18 Phases=1 Bus1=813.3 kV=0.23 kW=0.324  PF=0.95
New Load.LOAD19 Phases=1 Bus1=823.1 kV=0.23 kW=1.944  PF=0.95
New Load.LOAD20 Phases=1 Bus1=831.1 kV=0.23 kW=0.264  PF=0.95
New Load.LOAD21 Phases=1 Bus1=838.1 kV=0.23 kW=0.336  PF=0.95
New Load.LOAD22 Phases=1 Bus1=855.2 kV=0.23 kW=0.966  PF=0.95
New Load.LOAD23 Phases=1 Bus1=880.2 kV=0.23 kW=0.246  PF=0.95
New Load.LOAD24 Phases=1 Bus1=919.2 kV=0.23 kW=1.956  PF=0.95
New Load.LOAD25 Phases=1 Bus1=932.3 kV=0.23 kW=0.29400000000000004  PF=0.95
New Load.LOAD26 Phases=1 Bus1=963.2 kV=0.23 kW=0.336  PF=0.95
New Load.LOAD27 Phases=1 Bus1=982.1 kV=0.23 kW=0.27  PF=0.95
New Load.LOAD28 Phases=1 Bus1=987.1 kV=0.23 kW=0.276  PF=0.95
New Load.LOAD29 Phases=1 Bus1=988.1 kV=0.23 kW=0.34800000000000003  PF=0.95
New Load.LOAD30 Phases=1 Bus1=994.1 kV=0.23 kW=0.264  PF=0.95
New Load.LOAD31 Phases=1 Bus1=1000.2 kV=0.23 kW=0.28200000000000003  PF=0.95
New Load.LOAD32 Phases=1 Bus1=1004.3 kV=0.23 kW=0.342  PF=0.95
New Load.LOAD33 Phases=1 Bus1=1006.1 kV=0.23 kW=0.28800000000000003  PF=0.95
New Load.LOAD34 Phases=1 Bus1=1010.1 kV=0.23 kW=2.748  PF=0.95
New Load.LOAD35 Phases=1 Bus1=1017.3 kV=0.23 kW=0.9612  PF=0.95
New Load.LOAD36 Phases=1 Bus1=1037.2 kV=0.23 kW=0.318  PF=0.95
New Load.LOAD37 Phases=1 Bus1=1046.1 kV=0.23 kW=0.28200000000000003  PF=0.95
New Load.LOAD38 Phases=1 Bus1=1047.1 kV=0.23 kW=0.276  PF=0.95
New Load.LOAD39 Phases=1 Bus1=1071.1 kV=0.23 kW=9.738  PF=0.95
New Load.LOAD40 Phases=1 Bus1=1088.1 kV=0.23 kW=0.28800000000000003  PF=0.95
New Load.LOAD41 Phases=1 Bus1=1091.1 kV=0.23 kW=0.28800000000000003  PF=0.95
New Load.LOAD42 Phases=1 Bus1=1092.1 kV=0.23 kW=0.15000000000000002  PF=0.95
New Load.LOAD43 Phases=1 Bus1=1108.1 kV=0.23 kW=0.318  PF=0.95
New Load.LOAD44 Phases=1 Bus1=1110.1 kV=0.23 kW=1.8719999999999999  PF=0.95
New Load.LOAD45 Phases=1 Bus1=1123.1 kV=0.23 kW=5.586  PF=0.95
New Load.LOAD46 Phases=1 Bus1=1156.1 kV=0.23 kW=0.336  PF=0.95
New Load.LOAD47 Phases=1 Bus1=1172.1 kV=0.23 kW=0.354  PF=0.95
New Load.LOAD48 Phases=1 Bus1=1181.1 kV=0.23 kW=0.21599999999999997  PF=0.95
New Load.LOAD49 Phases=1 Bus1=1188.3 kV=0.23 kW=0.324  PF=0.95
New Load.LOAD50 Phases=1 Bus1=1194.3 kV=0.23 kW=0.318  PF=0.95
New Load.LOAD51 Phases=1 Bus1=1208.3 kV=0.23 kW=0.33  PF=0.95
New Load.LOAD52 Phases=1 Bus1=1221.3 kV=0.23 kW=0.22799999999999998  PF=0.95
New Load.LOAD53 Phases=1 Bus1=1230.3 kV=0.23 kW=0.9179999999999999  PF=0.95
New Load.LOAD54 Phases=1 Bus1=1245.3 kV=0.23 kW=0.28800000000000003  PF=0.95
New Load.LOAD55 Phases=1 Bus1=1249.3 kV=0.23 kW=0.4356  PF=0.95
New Load.LOAD56 Phases=1 Bus1=1252.3 kV=0.23 kW=0.402  PF=0.95
New Load.LOAD57 Phases=1 Bus1=1275.3 kV=0.23 kW=0.30000000000000004  PF=0.95
New Load.LOAD58 Phases=1 Bus1=1293.3 kV=0.23 kW=0.354  PF=0.95
New Load.LOAD59 Phases=1 Bus1=1300.3 kV=0.23 kW=0.264  PF=0.95
New Load.LOAD60 Phases=1 Bus1=1321.3 kV=0.23 kW=0.30000000000000004  PF=0.95
New Load.LOAD61 Phases=1 Bus1=1331.3 kV=0.23 kW=0.28800000000000003  PF=0.95
New Load.LOAD62 Phases=1 Bus1=1334.3 kV=0.23 kW=1.476  PF=0.95
New Load.LOAD63 Phases=1 Bus1=1337.3 kV=0.23 kW=1.242  PF=0.95
New Load.LOAD64 Phases=1 Bus1=1368.3 kV=0.23 kW=1.536  PF=0.95
New Load.LOAD65 Phases=1 Bus1=1390.3 kV=0.23 kW=0.30000000000000004  PF=0.95
! --------------------------------------------------------------------------